case_files/bus_024_mdl.m
% 24 BUS model, but no dynamic data is available
Bus.con = [ ... 
  1  138  1  0  2  1;
  2  138  1  0  2  1;
  3  138  1  0  2  1;
  4  138  1  0  2  1;
  5  138  1  0  2  1;
  6  138  1  0  2  1;
  7  138  1  0  2  1;
  8  138  1  0  2  1;
  9  138  1  0  2  1;
  10  138  1  0  2  1;
  11  230  1  0  3  1;
  12  230  1  0  3  1;
  13  230  1  0  3  1;
  14  230  1  0  3  1;
  15  230  1  0  3  1;
  16  230  1  0  3  1;
  17  230  1  0  3  1;
  18  230  1  0  3  1;
  19  230  1  0  3  1;
  20  230  1  0  3  1;
  21  230  1  0  3  1;
  22  230  1  0  3  1;
  23  230  1  0  3  1;
  24  230  1  0  3  1;
 ];

Line.con = [ ... 
  1  2  100  138  60  0  0  0.0026  0.0139  0.4611  0  0  1.93  0  2  1;
  1  3  100  138  60  0  0  0.0546  0.2112  0.0572  0  0  2.08  0  2.2  1;
  1  5  100  138  60  0  0  0.0218  0.0845  0.0229  0  0  2.08  0  2.2  1;
  2  4  100  138  60  0  0  0.0328  0.1267  0.0343  0  0  2.08  0  2.2  1;
  2  6  100  138  60  0  0  0.0497  0.192  0.052  0  0  2.08  0  2.2  1;
  9  3  100  138  60  0  0  0.0308  0.119  0.0322  0  0  2.08  0  2.2  1;
  9  4  100  138  60  0  0  0.0268  0.1037  0.0281  0  0  2.08  0  2.2  1;
  10  5  100  138  60  0  0  0.0228  0.0883  0.0239  0  0  2.08  0  2.2  1;
  3  24  100  138  60  0  0.6  0.0023  0.0839  0  1.015  0  5.1  0  6  1;
  10  6  100  138  60  0  0  0.0139  0.0605  2.459  0  0  1.93  0  2  1;
  7  8  100  138  60  0  0  0.0159  0.0614  0.0166  0  0  2.08  0  2.2  1;
  9  8  100  138  60  0  0  0.0427  0.1651  0.0447  0  0  2.08  0  2.2  1;
  10  8  100  138  60  0  0  0.0427  0.1651  0.0447  0  0  2.08  0  2.2  1;
  13  11  100  230  60  0  0  0.006  0.048  0.1  0  0  6  0  6.25  1;
  14  11  100  230  60  0  0  0.0054  0.0418  0.0879  0  0  6  0  6.25  1;
  9  11  100  138  60  0  0.6  0.0023  0.0839  0  1.03  0  5.1  0  6  1;
  13  12  100  230  60  0  0  0.006  0.048  0.1  0  0  6  0  6.25  1;
  23  12  100  230  60  0  0  0.0124  0.0966  0.203  0  0  6  0  6.25  1;
  13  23  100  230  60  0  0  0.0111  0.0865  0.1818  0  0  6  0  6.25  1;
  16  14  100  230  60  0  0  0.005  0.0589  0.0818  0  0  6  0  6.25  1;
  16  15  100  230  60  0  0  0.0022  0.0173  0.0364  0  0  6  0  6.25  1;
  21  15  100  230  60  0  0  0.0063  0.049  0.103  0  0  6  0  6.25  1;
  21  15  100  230  60  0  0  0.0063  0.049  0.103  0  0  6  0  6.25  1;
  15  24  100  230  60  0  0  0.0067  0.0519  0.1091  0  0  6  0  6.25  1;
  17  16  100  230  60  0  0  0.003  0.0259  0.0545  0  0  6  0  6.25  1;
  19  16  100  230  60  0  0  0.003  0.0231  0.0485  0  0  6  0  6.25  1;
  18  17  100  230  60  0  0  0.0018  0.0144  0.0303  0  0  6  0  6.25  1;
  9  12  100  138  60  0  0.6  0.0023  0.0839  0  1.03  0  5.1  0  6  1;
  22  17  100  230  60  0  0  0.0135  0.1053  0.2212  0  0  6  0  6.25  1;
  18  21  100  230  60  0  0  0.0033  0.0269  0.0545  0  0  6  0  6.25  1;
  18  21  100  230  60  0  0  0.0033  0.0269  0.0545  0  0  6  0  6.25  1;
  19  20  100  230  60  0  0  0.0051  0.0396  0.0833  0  0  6  0  6.25  1;
  19  20  100  230  60  0  0  0.0051  0.0396  0.0833  0  0  6  0  6.25  1;
  23  20  100  230  60  0  0  0.0028  0.0216  0.0455  0  0  6  0  6.25  1;
  23  20  100  230  60  0  0  0.0028  0.0216  0.0455  0  0  6  0  6.25  1;
  21  22  100  230  60  0  0  0.0087  0.0678  0.1424  0  0  6  0  6.25  1;
  10  12  100  138  60  0  0.6  0.0023  0.0839  0  1.015  0  5.1  0  6  1;
  10  11  100  138  60  0  0.6  0.0023  0.0839  0  1.015  0  5.1  0  6  1;
 ];

Shunt.con = [ ... 
  6  100  138  60  0  -1  1;
 ];

SW.con = [ ... 
  13  100  230  1.02  0  2.4  0  1.05  0.95  4.7321  1  1  1;
 ];

PV.con = [ ... 
  1  100  138  1.72  1.035  0.8  -0.5  1.05  0.95  1  1;
  2  100  138  1.72  1.035  0.8  -0.5  1.05  0.95  1  1;
  7  100  138  2.4  1.025  1.8  0  1.05  0.95  1  1;
  14  100  230  0  0.98  2  -0.5  1.05  0.95  1  1;
  15  100  230  2.15  1.014  1.1  -0.5  1.05  0.95  1  1;
  16  100  230  1.55  1.017  0.8  -0.5  1.05  0.95  1  1;
  18  100  230  4  1.05  2  -0.5  1.05  0.95  1  1;
  21  100  230  4  1.05  2  -0.5  1.05  0.95  1  1;
  22  100  230  3  1.05  0.96  -0.6  1.05  0.95  1  1;
  23  100  230  6.6  1.05  3.1  -1.25  1.05  0.95  1  1;
 ];

PQ.con = [ ... 
  1  100  138  1.08  0.22  1.05  0.95  1  1;
  2  100  138  0.97  0.2  1.05  0.95  1  1;
  3  100  138  1.8  0.37  1.05  0.95  1  1;
  4  100  138  0.74  0.15  1.05  0.95  1  1;
  5  100  138  0.71  0.14  1.05  0.95  1  1;
  6  100  138  1.36  0.28  1.05  0.95  1  1;
  7  100  138  1.25  0.25  1.05  0.95  1  1;
  8  100  138  1.71  0.35  1.05  0.95  1  1;
  9  100  138  1.75  0.36  1.05  0.95  1  1;
  10  100  138  1.95  0.4  1.05  0.95  1  1;
  13  100  230  2.65  0.54  1.05  0.95  1  1;
  14  100  230  1.94  0.39  1.05  0.95  1  1;
  15  100  230  3.17  0.64  1.05  0.95  1  1;
  16  100  230  1  0.2  1.05  0.95  1  1;
  18  100  230  3.33  0.68  1.05  0.95  1  1;
  19  100  230  1.81  0.37  1.05  0.95  1  1;
  20  100  230  1.28  0.26  1.05  0.95  1  1;
 ];

Demand.con = [ ... 
  1  100  1.188  0.242  1.4256  0.9504  0  0  18  0  0  0  0  0  0  0  0  1;
  2  100  1.067  0.22  1.2804  0.8536  0  0  25  0  0  0  0  0  0  0  0  1;
  3  100  1.98  0.407  2.376  1.584  0  0  19  0  0  0  0  0  0  0  0  1;
  4  100  0.814  0.165  0.9768  0.6512  0  0  24  0  0  0  0  0  0  0  0  1;
  5  100  0.781  0.154  0.9372  0.6248  0  0  22  0  0  0  0  0  0  0  0  1;
  6  100  1.496  0.308  1.7952  1.1968  0  0  19  0  0  0  0  0  0  0  0  1;
  7  100  1.375  0.275  1.65  1.1  0  0  22  0  0  0  0  0  0  0  0  1;
  8  100  1.881  0.385  2.2572  1.5048  0  0  20  0  0  0  0  0  0  0  0  1;
  9  100  1.925  0.396  2.31  1.54  0  0  20  0  0  0  0  0  0  0  0  1;
  10  100  2.145  0.44  2.574  1.716  0  0  19  0  0  0  0  0  0  0  0  1;
  13  100  2.915  0.594  3.498  2.332  0  0  19  0  0  0  0  0  0  0  0  1;
  14  100  2.134  0.429  2.5608  1.7072  0  0  25  0  0  0  0  0  0  0  0  1;
  15  100  3.847  0.704  4.6164  3.0776  0  0  25  0  0  0  0  0  0  0  0  1;
  16  100  1.1  0.22  1.32  0.88  0  0  23  0  0  0  0  0  0  0  0  1;
  18  100  3.663  0.748  4.3956  2.9304  0  0  18  0  0  0  0  0  0  0  0  1;
  19  100  1.991  0.407  2.3892  1.5928  0  0  19  0  0  0  0  0  0  0  0  1;
  20  100  1.408  0.286  1.6896  1.1264  0  0  23  0  0  0  0  0  0  0  0  1;
 ];

Supply.con = [ ... 
  1  100  0.1  0.2  0.1  0  1.72  24.8415  0.36505  0  0  0  0  0  1  0.1  0  0  0  1;
  1  100  0.1  0.2  0.1  0  1.72  24.8415  0.36505  0  0  0  0  0  1  0.1  0  0  0  1;
  1  100  0.76  0.76  0.152  0  3.5  10.2386  0.038404  0  0  0  0  0  1  0.3  -0.25  0  0  1;
  1  100  0.76  0.76  0.152  0  3.5  10.2386  0.038404  0  0  0  0  0  1  0.3  -0.25  0  0  1;
  2  100  0.1  0.2  0.1  0  1.72  24.8415  0.36505  0  0  0  0  0  1  0.1  0  0  0  1;
  2  100  0.1  0.2  0.1  0  1.72  24.8415  0.36505  0  0  0  0  0  1  0.1  0  0  0  1;
  2  100  0.76  0.76  0.152  0  3.5  10.2386  0.038404  0  0  0  0  0  1  0.3  -0.25  0  0  1;
  2  100  0.76  0.76  0.152  0  3.5  10.2386  0.038404  0  0  0  0  0  1  0.3  -0.25  0  0  1;
  7  100  0.8  1  0.25  0  -0.65  17.9744  0.027484  0  0  0  0  0  1  0.6  0  0  0  1;
  7  100  0.8  1  0.25  0  -0.65  17.9744  0.027484  0  0  0  0  0  1  0.6  0  0  0  1;
  7  100  0.8  1  0.25  0  -0.65  17.9744  0.027484  0  0  0  0  0  1  0.6  0  0  0  1;
  13  100  1.5774  1.97  0.6895  0  0.58  18.47  0.010109  0  0  0  0  0  1  0.8  0  0  0  1;
  13  100  1.5774  1.97  0.6895  0  0.58  18.47  0.010109  0  0  0  0  0  1  0.8  0  0  0  1;
  13  100  1.5774  1.97  0.6895  0  0.58  18.47  0.010109  0  0  0  0  0  1  0.8  0  0  0  1;
  15  100  1.55  1.55  0.5425  0  1.09  9.5369  0.005586  0  0  0  0  0  1  0.8  -0.5  0  0  1;
  15  100  0.12  0.12  0.024  0  1.11  21.2267  0.379372  0  0  0  0  0  1  0.06  0  0  0  1;
  15  100  0.12  0.12  0.024  0  1.11  21.2267  0.379372  0  0  0  0  0  1  0.06  0  0  0  1;
  15  100  0.12  0.12  0.024  0  1.11  21.2267  0.379372  0  0  0  0  0  1  0.06  0  0  0  1;
  15  100  0.12  0.12  0.024  0  1.11  21.2267  0.379372  0  0  0  0  0  1  0.06  0  0  0  1;
  15  100  0.12  0.12  0.024  0  1.11  21.2267  0.379372  0  0  0  0  0  1  0.06  0  0  0  1;
  16  100  1.55  1.55  0.5425  0  1.09  9.5369  0.005586  0  0  0  0  0  1  0.8  -0.5  0  0  1;
  18  100  4  4  1  0  5.76  5.2301  6.7e-05  0  0  0  0  0  1  2  -0.5  0  0  1;
  21  100  4  4  1  0  5.76  5.2301  6.7e-05  0  0  0  0  0  1  2  -0.5  0  0  1;
  22  100  0.5  0.5  0  0  0  1  0  0  0  0  0  0  1  0.16  -0.1  0  0  1;
  22  100  0.5  0.5  0  0  0  1  0  0  0  0  0  0  1  0.16  -0.1  0  0  1;
  22  100  0.5  0.5  0  0  0  1  0  0  0  0  0  0  1  0.16  -0.1  0  0  1;
  22  100  0.5  0.5  0  0  0  1  0  0  0  0  0  0  1  0.16  -0.1  0  0  1;
  22  100  0.5  0.5  0  0  0  1  0  0  0  0  0  0  1  0.16  -0.1  0  0  1;
  22  100  0.5  0.5  0  0  0  1  0  0  0  0  0  0  1  0.16  -0.1  0  0  1;
  23  100  1.55  1.55  0.5425  0  1.09  9.5369  0.005586  0  0  0  0  0  1  0.8  -0.5  0  0  1;
  23  100  1.55  1.55  0.5425  0  1.09  9.5369  0.005586  0  0  0  0  0  1  0.8  -0.5  0  0  1;
  23  100  3.5  3.5  1.4  0  1.64  9.5856  0.003152  0  0  0  0  0  1  1.5  -0.25  0  0  1;
 ];

Bus.names = {... 
  'Bus101'; 'Bus102'; 'Bus103'; 'Bus104'; 'Bus105'; 
  'Bus106'; 'Bus107'; 'Bus108'; 'Bus109'; 'Bus110'; 
  'Bus111'; 'Bus112'; 'Bus113'; 'Bus114'; 'Bus115'; 
  'Bus116'; 'Bus117'; 'Bus118'; 'Bus119'; 'Bus120'; 
  'Bus121'; 'Bus122'; 'Bus123'; 'Bus124'};

